*Heading
File generated by TexGen v3.11.0
************
*** MESH ***
************
*Node
1, -0.5, 0, -0.5
2, -0.4, 0, -0.5
3, -0.3, 0, -0.5
4, -0.2, 0, -0.5
5, -0.1, 0, -0.5
6, 0, 0, -0.5
7, 0.1, 0, -0.5
8, 0.2, 0, -0.5
9, 0.3, 0, -0.5
10, 0.4, 0, -0.5
11, 0.5, 0, -0.5
12, 0.6, 0, -0.5
13, 0.7, 0, -0.5
14, 0.8, 0, -0.5
15, 0.9, 0, -0.5
16, 1, 0, -0.5
17, 1.1, 0, -0.5
18, 1.2, 0, -0.5
19, 1.3, 0, -0.5
20, 1.4, 0, -0.5
** ... 22471 like lines cut
*Element, Type=C3D8R
1, 6, 27, 26, 5, 1077, 1098, 1097, 1076
2, 7, 28, 27, 6, 1078, 1099, 1098, 1077
3, 8, 29, 28, 7, 1079, 1100, 1099, 1078
4, 27, 48, 47, 26, 1098, 1119, 1118, 1097
5, 28, 49, 48, 27, 1099, 1120, 1119, 1098
6, 29, 50, 49, 28, 1100, 1121, 1120, 1099
7, 49, 70, 69, 48, 1120, 1141, 1140, 1119
8, 50, 71, 70, 49, 1121, 1142, 1141, 1120
9, 51, 72, 71, 50, 1122, 1143, 1142, 1121
10, 52, 73, 72, 51, 1123, 1144, 1143, 1122
11, 72, 93, 92, 71, 1143, 1164, 1163, 1142
12, 73, 94, 93, 72, 1144, 1165, 1164, 1143
13, 74, 95, 94, 73, 1145, 1166, 1165, 1144
14, 95, 116, 115, 94, 1166, 1187, 1186, 1165
15, 96, 117, 116, 95, 1167, 1188, 1187, 1166
16, 97, 118, 117, 96, 1168, 1189, 1188, 1167
17, 118, 139, 138, 117, 1189, 1210, 1209, 1188
18, 119, 140, 139, 118, 1190, 1211, 1210, 1189
19, 120, 141, 140, 119, 1191, 1212, 1211, 1190
20, 140, 161, 160, 139, 1211, 1232, 1231, 1210
** ... 8228 like lines cut
********************
*** ORIENTATIONS ***
********************
** Orientation vectors
** 1st vector represents the fibre direction
** 2nd vector is an arbitrary vector perpendicular to the first
*Distribution Table, Name=TexGenOrientationVectors
COORD3D,COORD3D
*Distribution, Location=Element, Table=TexGenOrientationVectors, Name=TexGenOrientationVectors, Input=test_out.ori
*Orientation, Name=TexGenOrientations, Definition=coordinates
TexGenOrientationVectors
1, 0
********************
*** ELEMENT SETS ***
********************
** TexGen generates a number of element sets:
** All - Contains all elements
** Matrix - Contains all elements belonging to the matrix
** YarnX - Where X represents the yarn index
*ElSet, ElSet=AllElements, Generate
1, 8248, 1
*ElSet, ElSet=Yarn0
1, 2, 3, 4, 5, 6, 7, 8, 9, 10, 11, 12, 13, 14, 15, 16
17, 18, 19, 20, 21, 22, 23, 24, 25, 26, 27, 28, 29, 30, 31, 32
33, 34, 35, 36, 37, 38, 39, 40, 41, 42, 43, 44, 45, 46, 47, 48
49, 50, 51, 52, 53, 54, 55, 56, 57, 58, 59, 60, 61, 62, 63, 64
65, 66, 67, 68, 69, 70, 71, 72, 73, 74, 75, 76, 77, 78, 79, 80
81, 82, 83, 84, 85, 86, 87, 88, 89, 90, 91, 92, 93, 94, 95, 96
97, 98, 99, 100, 101, 102, 103, 104, 105, 106, 107, 108, 109, 110, 111, 112
113, 114, 115, 116, 117, 118, 119, 120, 121, 122, 123, 124, 125, 126, 127, 128
129, 130, 131, 132, 133, 134, 135, 136, 137, 138, 139, 140, 141, 142, 143, 144
145, 146, 147, 148, 149, 150, 151, 152, 153, 154, 155, 156, 157, 158, 159, 160
161, 162, 163, 164, 165, 166, 167, 168, 169, 170, 171, 172, 173, 174, 175, 176
177, 178, 179, 180, 181, 182, 183, 184, 185, 186, 187, 188, 189, 190, 191, 192
193, 194, 195, 196, 197, 198, 199, 200, 201, 202, 203, 204, 205, 206, 207, 208
209, 210, 211, 212, 213, 214, 215, 216, 217, 218, 219, 220, 221, 222, 223, 224
225, 226, 227, 228, 229, 230, 231, 232, 233, 234, 235, 236, 237, 238, 239, 240
241, 242, 243, 244, 245, 246, 247, 248, 249, 250, 251, 252, 253, 254, 255, 256
257, 258, 259, 260, 261, 262, 263, 264, 265, 266, 267, 268, 269, 270, 271, 272
273, 274, 275, 276, 277, 278, 279, 280, 281, 282, 283, 284, 285, 286, 287, 288
289, 290, 291, 292, 293, 294, 295, 296, 297, 298, 299, 300, 301, 302, 303, 304
305, 306, 307, 308, 309, 310, 311, 312, 313, 314, 315, 316, 317, 318, 319, 320
** ... 496 like lines cut
*****************
*** NODE SETS ***
*****************
** AllNodes - Node set containing all elements
*NSet, NSet=AllNodes, Generate
1, 22491, 1
*****************
*** MATERIALS ***
*****************
*Material, Name=Mat0
*Elastic
3e+09, 0.2
*Expansion
6.5e-06
*Material, Name=Mat1
*Elastic, type=ENGINEERING CONSTANTS
2e+11, 1e+10, 1e+10, 0.3, 0.4, 0.4, 5e+09, 5e+09
5e+09
*Expansion, type=ORTHO
-2e-07, 3e-06, 3e-06
*Solid Section, ElSet=Matrix, Material=Mat0
1.0,
*Solid Section, ElSet=Yarn0, Material=Mat1, Orientation=TexGenOrientations
1.0,
************************************
*** PERIODIC BOUNDARY CONDITIONS ***
************************************
*** ConstraintsDriver0 = e_x
*** ConstraintsDriver1 = e_y
*** ConstraintsDriver2 = e_z
*** ConstraintsDriver3 = e_xy
*** ConstraintsDriver4 = e_xz
*** ConstraintsDriver5 = e_yz
*Node
22492, 0, 0, 0
*NSet, NSet=ConstraintsDriver0
22492
*Node
22493, 0, 0, 0
*NSet, NSet=ConstraintsDriver1
22493
*Node
22494, 0, 0, 0
*NSet, NSet=ConstraintsDriver2
22494
*Node
22495, 0, 0, 0
*NSet, NSet=ConstraintsDriver3
22495
*Node
22496, 0, 0, 0
*NSet, NSet=ConstraintsDriver4
22496
*Node
22497, 0, 0, 0
*NSet, NSet=ConstraintsDriver5
22497
*NSet, NSet=FaceA, Unsorted
1113, 1134, 1155, 1176, 1197, 1218, 1239, 1260, 1281, 1302, 1323, 1344, 1365, 1386, 1407, 1428
1449, 1470, 1491, 1512, 1533, 1554, 1575, 1596, 1617, 1638, 1659, 1680, 1701, 1722, 1743, 1764
1785, 1806, 1827, 1848, 1869, 1890, 1911, 1932, 1953, 1974, 1995, 2016, 2037, 2058, 2079, 2100
2121, 2184, 2205, 2226, 2247, 2268, 2289, 2310, 2331, 2352, 2373, 2394, 2415, 2436, 2457, 2478
2499, 2520, 2541, 2562, 2583, 2604, 2625, 2646, 2667, 2688, 2709, 2730, 2751, 2772, 2793, 2814
2835, 2856, 2877, 2898, 2919, 2940, 2961, 2982, 3003, 3024, 3045, 3066, 3087, 3108, 3129, 3150
3171, 3192, 3255, 3276, 3297, 3318, 3339, 3360, 3381, 3402, 3423, 3444, 3465, 3486, 3507, 3528
3549, 3570, 3591, 3612, 3633, 3654, 3675, 3696, 3717, 3738, 3759, 3780, 3801, 3822, 3843, 3864
3885, 3906, 3927, 3948, 3969, 3990, 4011, 4032, 4053, 4074, 4095, 4116, 4137, 4158, 4179, 4200
4221, 4242, 4263, 4326, 4347, 4368, 4389, 4410, 4431, 4452, 4473, 4494, 4515, 4536, 4557, 4578
4599, 4620, 4641, 4662, 4683, 4704, 4725, 4746, 4767, 4788, 4809, 4830, 4851, 4872, 4893, 4914
4935, 4956, 4977, 4998, 5019, 5040, 5061, 5082, 5103, 5124, 5145, 5166, 5187, 5208, 5229, 5250
5271, 5292, 5313, 5334, 5397, 5418, 5439, 5460, 5481, 5502, 5523, 5544, 5565, 5586, 5607, 5628
5649, 5670, 5691, 5712, 5733, 5754, 5775, 5796, 5817, 5838, 5859, 5880, 5901, 5922, 5943, 5964
5985, 6006, 6027, 6048, 6069, 6090, 6111, 6132, 6153, 6174, 6195, 6216, 6237, 6258, 6279, 6300
6321, 6342, 6363, 6384, 6405, 6468, 6489, 6510, 6531, 6552, 6573, 6594, 6615, 6636, 6657, 6678
6699, 6720, 6741, 6762, 6783, 6804, 6825, 6846, 6867, 6888, 6909, 6930, 6951, 6972, 6993, 7014
7035, 7056, 7077, 7098, 7119, 7140, 7161, 7182, 7203, 7224, 7245, 7266, 7287, 7308, 7329, 7350
7371, 7392, 7413, 7434, 7455, 7476, 7539, 7560, 7581, 7602, 7623, 7644, 7665, 7686, 7707, 7728
7749, 7770, 7791, 7812, 7833, 7854, 7875, 7896, 7917, 7938, 7959, 7980, 8001, 8022, 8043, 8064
** ... 39 like lines cut
*NSet, NSet=FaceB, Unsorted
1093, 1114, 1135, 1156, 1177, 1198, 1219, 1240, 1261, 1282, 1303, 1324, 1345, 1366, 1387, 1408
1429, 1450, 1471, 1492, 1513, 1534, 1555, 1576, 1597, 1618, 1639, 1660, 1681, 1702, 1723, 1744
1765, 1786, 1807, 1828, 1849, 1870, 1891, 1912, 1933, 1954, 1975, 1996, 2017, 2038, 2059, 2080
2101, 2164, 2185, 2206, 2227, 2248, 2269, 2290, 2311, 2332, 2353, 2374, 2395, 2416, 2437, 2458
2479, 2500, 2521, 2542, 2563, 2584, 2605, 2626, 2647, 2668, 2689, 2710, 2731, 2752, 2773, 2794
2815, 2836, 2857, 2878, 2899, 2920, 2941, 2962, 2983, 3004, 3025, 3046, 3067, 3088, 3109, 3130
3151, 3172, 3235, 3256, 3277, 3298, 3319, 3340, 3361, 3382, 3403, 3424, 3445, 3466, 3487, 3508
3529, 3550, 3571, 3592, 3613, 3634, 3655, 3676, 3697, 3718, 3739, 3760, 3781, 3802, 3823, 3844
3865, 3886, 3907, 3928, 3949, 3970, 3991, 4012, 4033, 4054, 4075, 4096, 4117, 4138, 4159, 4180
4201, 4222, 4243, 4306, 4327, 4348, 4369, 4390, 4411, 4432, 4453, 4474, 4495, 4516, 4537, 4558
4579, 4600, 4621, 4642, 4663, 4684, 4705, 4726, 4747, 4768, 4789, 4810, 4831, 4852, 4873, 4894
4915, 4936, 4957, 4978, 4999, 5020, 5041, 5062, 5083, 5104, 5125, 5146, 5167, 5188, 5209, 5230
5251, 5272, 5293, 5314, 5377, 5398, 5419, 5440, 5461, 5482, 5503, 5524, 5545, 5566, 5587, 5608
5629, 5650, 5671, 5692, 5713, 5734, 5755, 5776, 5797, 5818, 5839, 5860, 5881, 5902, 5923, 5944
5965, 5986, 6007, 6028, 6049, 6070, 6091, 6112, 6133, 6154, 6175, 6196, 6217, 6238, 6259, 6280
6301, 6322, 6343, 6364, 6385, 6448, 6469, 6490, 6511, 6532, 6553, 6574, 6595, 6616, 6637, 6658
6679, 6700, 6721, 6742, 6763, 6784, 6805, 6826, 6847, 6868, 6889, 6910, 6931, 6952, 6973, 6994
7015, 7036, 7057, 7078, 7099, 7120, 7141, 7162, 7183, 7204, 7225, 7246, 7267, 7288, 7309, 7330
7351, 7372, 7393, 7414, 7435, 7456, 7519, 7540, 7561, 7582, 7603, 7624, 7645, 7666, 7687, 7708
7729, 7750, 7771, 7792, 7813, 7834, 7855, 7876, 7897, 7918, 7939, 7960, 7981, 8002, 8023, 8044
** ... 39 like lines cut
*NSet, NSet=FaceC, Unsorted
2123, 2124, 2125, 2126, 2127, 2128, 2129, 2130, 2131, 2132, 2133, 2134, 2135, 2136, 2137, 2138
2139, 2140, 2141, 3194, 3195, 3196, 3197, 3198, 3199, 3200, 3201, 3202, 3203, 3204, 3205, 3206
3207, 3208, 3209, 3210, 3211, 3212, 4265, 4266, 4267, 4268, 4269, 4270, 4271, 4272, 4273, 4274
4275, 4276, 4277, 4278, 4279, 4280, 4281, 4282, 4283, 5336, 5337, 5338, 5339, 5340, 5341, 5342
5343, 5344, 5345, 5346, 5347, 5348, 5349, 5350, 5351, 5352, 5353, 5354, 6407, 6408, 6409, 6410
6411, 6412, 6413, 6414, 6415, 6416, 6417, 6418, 6419, 6420, 6421, 6422, 6423, 6424, 6425, 7478
7479, 7480, 7481, 7482, 7483, 7484, 7485, 7486, 7487, 7488, 7489, 7490, 7491, 7492, 7493, 7494
7495, 7496, 8549, 8550, 8551, 8552, 8553, 8554, 8555, 8556, 8557, 8558, 8559, 8560, 8561, 8562
8563, 8564, 8565, 8566, 8567, 9620, 9621, 9622, 9623, 9624, 9625, 9626, 9627, 9628, 9629, 9630
9631, 9632, 9633, 9634, 9635, 9636, 9637, 9638, 10691, 10692, 10693, 10694, 10695, 10696, 10697, 10698
10699, 10700, 10701, 10702, 10703, 10704, 10705, 10706, 10707, 10708, 10709, 11762, 11763, 11764, 11765, 11766
11767, 11768, 11769, 11770, 11771, 11772, 11773, 11774, 11775, 11776, 11777, 11778, 11779, 11780, 12833, 12834
12835, 12836, 12837, 12838, 12839, 12840, 12841, 12842, 12843, 12844, 12845, 12846, 12847, 12848, 12849, 12850
12851, 13904, 13905, 13906, 13907, 13908, 13909, 13910, 13911, 13912, 13913, 13914, 13915, 13916, 13917, 13918
13919, 13920, 13921, 13922, 14975, 14976, 14977, 14978, 14979, 14980, 14981, 14982, 14983, 14984, 14985, 14986
14987, 14988, 14989, 14990, 14991, 14992, 14993, 16046, 16047, 16048, 16049, 16050, 16051, 16052, 16053, 16054
16055, 16056, 16057, 16058, 16059, 16060, 16061, 16062, 16063, 16064, 17117, 17118, 17119, 17120, 17121, 17122
17123, 17124, 17125, 17126, 17127, 17128, 17129, 17130, 17131, 17132, 17133, 17134, 17135, 18188, 18189, 18190
18191, 18192, 18193, 18194, 18195, 18196, 18197, 18198, 18199, 18200, 18201, 18202, 18203, 18204, 18205, 18206
19259, 19260, 19261, 19262, 19263, 19264, 19265, 19266, 19267, 19268, 19269, 19270, 19271, 19272, 19273, 19274
19275, 19276, 19277, 20330, 20331, 20332, 20333, 20334, 20335, 20336, 20337, 20338, 20339, 20340, 20341, 20342
20343, 20344, 20345, 20346, 20347, 20348, 21401, 21402, 21403, 21404, 21405, 21406, 21407, 21408, 21409, 21410
21411, 21412, 21413, 21414, 21415, 21416, 21417, 21418, 21419
*NSet, NSet=FaceD, Unsorted
1073, 1074, 1075, 1076, 1077, 1078, 1079, 1080, 1081, 1082, 1083, 1084, 1085, 1086, 1087, 1088
1089, 1090, 1091, 2144, 2145, 2146, 2147, 2148, 2149, 2150, 2151, 2152, 2153, 2154, 2155, 2156
2157, 2158, 2159, 2160, 2161, 2162, 3215, 3216, 3217, 3218, 3219, 3220, 3221, 3222, 3223, 3224
3225, 3226, 3227, 3228, 3229, 3230, 3231, 3232, 3233, 4286, 4287, 4288, 4289, 4290, 4291, 4292
4293, 4294, 4295, 4296, 4297, 4298, 4299, 4300, 4301, 4302, 4303, 4304, 5357, 5358, 5359, 5360
5361, 5362, 5363, 5364, 5365, 5366, 5367, 5368, 5369, 5370, 5371, 5372, 5373, 5374, 5375, 6428
6429, 6430, 6431, 6432, 6433, 6434, 6435, 6436, 6437, 6438, 6439, 6440, 6441, 6442, 6443, 6444
6445, 6446, 7499, 7500, 7501, 7502, 7503, 7504, 7505, 7506, 7507, 7508, 7509, 7510, 7511, 7512
7513, 7514, 7515, 7516, 7517, 8570, 8571, 8572, 8573, 8574, 8575, 8576, 8577, 8578, 8579, 8580
8581, 8582, 8583, 8584, 8585, 8586, 8587, 8588, 9641, 9642, 9643, 9644, 9645, 9646, 9647, 9648
9649, 9650, 9651, 9652, 9653, 9654, 9655, 9656, 9657, 9658, 9659, 10712, 10713, 10714, 10715, 10716
10717, 10718, 10719, 10720, 10721, 10722, 10723, 10724, 10725, 10726, 10727, 10728, 10729, 10730, 11783, 11784
11785, 11786, 11787, 11788, 11789, 11790, 11791, 11792, 11793, 11794, 11795, 11796, 11797, 11798, 11799, 11800
11801, 12854, 12855, 12856, 12857, 12858, 12859, 12860, 12861, 12862, 12863, 12864, 12865, 12866, 12867, 12868
12869, 12870, 12871, 12872, 13925, 13926, 13927, 13928, 13929, 13930, 13931, 13932, 13933, 13934, 13935, 13936
13937, 13938, 13939, 13940, 13941, 13942, 13943, 14996, 14997, 14998, 14999, 15000, 15001, 15002, 15003, 15004
15005, 15006, 15007, 15008, 15009, 15010, 15011, 15012, 15013, 15014, 16067, 16068, 16069, 16070, 16071, 16072
16073, 16074, 16075, 16076, 16077, 16078, 16079, 16080, 16081, 16082, 16083, 16084, 16085, 17138, 17139, 17140
17141, 17142, 17143, 17144, 17145, 17146, 17147, 17148, 17149, 17150, 17151, 17152, 17153, 17154, 17155, 17156
18209, 18210, 18211, 18212, 18213, 18214, 18215, 18216, 18217, 18218, 18219, 18220, 18221, 18222, 18223, 18224
18225, 18226, 18227, 19280, 19281, 19282, 19283, 19284, 19285, 19286, 19287, 19288, 19289, 19290, 19291, 19292
19293, 19294, 19295, 19296, 19297, 19298, 20351, 20352, 20353, 20354, 20355, 20356, 20357, 20358, 20359, 20360
20361, 20362, 20363, 20364, 20365, 20366, 20367, 20368, 20369
*NSet, NSet=FaceE, Unsorted
21443, 21444, 21445, 21446, 21447, 21448, 21449, 21450, 21451, 21452, 21453, 21454, 21455, 21456, 21457, 21458
21459, 21460, 21461, 21464, 21465, 21466, 21467, 21468, 21469, 21470, 21471, 21472, 21473, 21474, 21475, 21476
21477, 21478, 21479, 21480, 21481, 21482, 21485, 21486, 21487, 21488, 21489, 21490, 21491, 21492, 21493, 21494
21495, 21496, 21497, 21498, 21499, 21500, 21501, 21502, 21503, 21506, 21507, 21508, 21509, 21510, 21511, 21512
21513, 21514, 21515, 21516, 21517, 21518, 21519, 21520, 21521, 21522, 21523, 21524, 21527, 21528, 21529, 21530
21531, 21532, 21533, 21534, 21535, 21536, 21537, 21538, 21539, 21540, 21541, 21542, 21543, 21544, 21545, 21548
21549, 21550, 21551, 21552, 21553, 21554, 21555, 21556, 21557, 21558, 21559, 21560, 21561, 21562, 21563, 21564
21565, 21566, 21569, 21570, 21571, 21572, 21573, 21574, 21575, 21576, 21577, 21578, 21579, 21580, 21581, 21582
21583, 21584, 21585, 21586, 21587, 21590, 21591, 21592, 21593, 21594, 21595, 21596, 21597, 21598, 21599, 21600
21601, 21602, 21603, 21604, 21605, 21606, 21607, 21608, 21611, 21612, 21613, 21614, 21615, 21616, 21617, 21618
21619, 21620, 21621, 21622, 21623, 21624, 21625, 21626, 21627, 21628, 21629, 21632, 21633, 21634, 21635, 21636
21637, 21638, 21639, 21640, 21641, 21642, 21643, 21644, 21645, 21646, 21647, 21648, 21649, 21650, 21653, 21654
21655, 21656, 21657, 21658, 21659, 21660, 21661, 21662, 21663, 21664, 21665, 21666, 21667, 21668, 21669, 21670
21671, 21674, 21675, 21676, 21677, 21678, 21679, 21680, 21681, 21682, 21683, 21684, 21685, 21686, 21687, 21688
21689, 21690, 21691, 21692, 21695, 21696, 21697, 21698, 21699, 21700, 21701, 21702, 21703, 21704, 21705, 21706
21707, 21708, 21709, 21710, 21711, 21712, 21713, 21716, 21717, 21718, 21719, 21720, 21721, 21722, 21723, 21724
21725, 21726, 21727, 21728, 21729, 21730, 21731, 21732, 21733, 21734, 21737, 21738, 21739, 21740, 21741, 21742
21743, 21744, 21745, 21746, 21747, 21748, 21749, 21750, 21751, 21752, 21753, 21754, 21755, 21758, 21759, 21760
21761, 21762, 21763, 21764, 21765, 21766, 21767, 21768, 21769, 21770, 21771, 21772, 21773, 21774, 21775, 21776
21779, 21780, 21781, 21782, 21783, 21784, 21785, 21786, 21787, 21788, 21789, 21790, 21791, 21792, 21793, 21794
** ... 39 like lines cut
*NSet, NSet=FaceF, Unsorted
23, 24, 25, 26, 27, 28, 29, 30, 31, 32, 33, 34, 35, 36, 37, 38
39, 40, 41, 44, 45, 46, 47, 48, 49, 50, 51, 52, 53, 54, 55, 56
57, 58, 59, 60, 61, 62, 65, 66, 67, 68, 69, 70, 71, 72, 73, 74
75, 76, 77, 78, 79, 80, 81, 82, 83, 86, 87, 88, 89, 90, 91, 92
93, 94, 95, 96, 97, 98, 99, 100, 101, 102, 103, 104, 107, 108, 109, 110
111, 112, 113, 114, 115, 116, 117, 118, 119, 120, 121, 122, 123, 124, 125, 128
129, 130, 131, 132, 133, 134, 135, 136, 137, 138, 139, 140, 141, 142, 143, 144
145, 146, 149, 150, 151, 152, 153, 154, 155, 156, 157, 158, 159, 160, 161, 162
163, 164, 165, 166, 167, 170, 171, 172, 173, 174, 175, 176, 177, 178, 179, 180
181, 182, 183, 184, 185, 186, 187, 188, 191, 192, 193, 194, 195, 196, 197, 198
199, 200, 201, 202, 203, 204, 205, 206, 207, 208, 209, 212, 213, 214, 215, 216
217, 218, 219, 220, 221, 222, 223, 224, 225, 226, 227, 228, 229, 230, 233, 234
235, 236, 237, 238, 239, 240, 241, 242, 243, 244, 245, 246, 247, 248, 249, 250
251, 254, 255, 256, 257, 258, 259, 260, 261, 262, 263, 264, 265, 266, 267, 268
269, 270, 271, 272, 275, 276, 277, 278, 279, 280, 281, 282, 283, 284, 285, 286
287, 288, 289, 290, 291, 292, 293, 296, 297, 298, 299, 300, 301, 302, 303, 304
305, 306, 307, 308, 309, 310, 311, 312, 313, 314, 317, 318, 319, 320, 321, 322
323, 324, 325, 326, 327, 328, 329, 330, 331, 332, 333, 334, 335, 338, 339, 340
341, 342, 343, 344, 345, 346, 347, 348, 349, 350, 351, 352, 353, 354, 355, 356
359, 360, 361, 362, 363, 364, 365, 366, 367, 368, 369, 370, 371, 372, 373, 374
** ... 39 like lines cut
*NSet, NSet=Edge1, Unsorted
1072, 2143, 3214, 4285, 5356, 6427, 7498, 8569, 9640, 10711, 11782, 12853, 13924, 14995, 16066, 17137
18208, 19279, 20350
*NSet, NSet=Edge2, Unsorted
1092, 2163, 3234, 4305, 5376, 6447, 7518, 8589, 9660, 10731, 11802, 12873, 13944, 15015, 16086, 17157
18228, 19299, 20370
*NSet, NSet=Edge3, Unsorted
2142, 3213, 4284, 5355, 6426, 7497, 8568, 9639, 10710, 11781, 12852, 13923, 14994, 16065, 17136, 18207
19278, 20349, 21420
*NSet, NSet=Edge4, Unsorted
2122, 3193, 4264, 5335, 6406, 7477, 8548, 9619, 10690, 11761, 12832, 13903, 14974, 16045, 17116, 18187
19258, 20329, 21400
*NSet, NSet=Edge5, Unsorted
22, 43, 64, 85, 106, 127, 148, 169, 190, 211, 232, 253, 274, 295, 316, 337
358, 379, 400, 421, 442, 463, 484, 505, 526, 547, 568, 589, 610, 631, 652, 673
694, 715, 736, 757, 778, 799, 820, 841, 862, 883, 904, 925, 946, 967, 988, 1009
1030
*NSet, NSet=Edge6, Unsorted
42, 63, 84, 105, 126, 147, 168, 189, 210, 231, 252, 273, 294, 315, 336, 357
378, 399, 420, 441, 462, 483, 504, 525, 546, 567, 588, 609, 630, 651, 672, 693
714, 735, 756, 777, 798, 819, 840, 861, 882, 903, 924, 945, 966, 987, 1008, 1029
1050
*NSet, NSet=Edge7, Unsorted
21462, 21483, 21504, 21525, 21546, 21567, 21588, 21609, 21630, 21651, 21672, 21693, 21714, 21735, 21756, 21777
21798, 21819, 21840, 21861, 21882, 21903, 21924, 21945, 21966, 21987, 22008, 22029, 22050, 22071, 22092, 22113
22134, 22155, 22176, 22197, 22218, 22239, 22260, 22281, 22302, 22323, 22344, 22365, 22386, 22407, 22428, 22449
22470
*NSet, NSet=Edge8, Unsorted
21442, 21463, 21484, 21505, 21526, 21547, 21568, 21589, 21610, 21631, 21652, 21673, 21694, 21715, 21736, 21757
21778, 21799, 21820, 21841, 21862, 21883, 21904, 21925, 21946, 21967, 21988, 22009, 22030, 22051, 22072, 22093
22114, 22135, 22156, 22177, 22198, 22219, 22240, 22261, 22282, 22303, 22324, 22345, 22366, 22387, 22408, 22429
22450
*NSet, NSet=Edge9, Unsorted
2, 3, 4, 5, 6, 7, 8, 9, 10, 11, 12, 13, 14, 15, 16, 17
18, 19, 20
*NSet, NSet=Edge10, Unsorted
1052, 1053, 1054, 1055, 1056, 1057, 1058, 1059, 1060, 1061, 1062, 1063, 1064, 1065, 1066, 1067
1068, 1069, 1070
*NSet, NSet=Edge11, Unsorted
22472, 22473, 22474, 22475, 22476, 22477, 22478, 22479, 22480, 22481, 22482, 22483, 22484, 22485, 22486, 22487
22488, 22489, 22490
*NSet, NSet=Edge12, Unsorted
21422, 21423, 21424, 21425, 21426, 21427, 21428, 21429, 21430, 21431, 21432, 21433, 21434, 21435, 21436, 21437
21438, 21439, 21440
*NSet, NSet=MasterNode1, Unsorted
1
*NSet, NSet=MasterNode2, Unsorted
21
*NSet, NSet=MasterNode3, Unsorted
1071
*NSet, NSet=MasterNode4, Unsorted
1051
*NSet, NSet=MasterNode5, Unsorted
21421
*NSet, NSet=MasterNode6, Unsorted
21441
*NSet, NSet=MasterNode7, Unsorted
22491
*NSet, NSet=MasterNode8, Unsorted
22471
***************************
*** BOUNDARY CONDITIONS ***
***************************
*** Name: Translation stop Vertex 1 Type: Displacement/Rotation
*Boundary
MasterNode1, 1, 1
MasterNode1, 2, 2
MasterNode1, 3, 3

*****************
*** EQUATIONS ***
*****************
*Equation
3
FaceA, 1, 1.0, FaceB, 1, -1.0, ConstraintsDriver0, 1, -2
*Equation
2
FaceA, 2, 1.0, FaceB, 2, -1.0
*Equation
2
FaceA, 3, 1.0, FaceB, 3, -1.0
*Equation
3
FaceC, 1, 1.0, FaceD, 1, -1.0, ConstraintsDriver3, 1, -21
*Equation
3
FaceC, 2, 1.0, FaceD, 2, -1.0, ConstraintsDriver1, 1, -21
*Equation
2
FaceC, 3, 1.0, FaceD, 3, -1.0
*Equation
3
FaceE, 1, 1.0, FaceF, 1, -1.0, ConstraintsDriver4, 1, -1
*Equation
3
FaceE, 2, 1.0, FaceF, 2, -1.0, ConstraintsDriver5, 1, -1
*Equation
3
FaceE, 3, 1.0, FaceF, 3, -1.0, ConstraintsDriver2, 1, -1
*Equation
3
Edge2, 1, 1.0, Edge1, 1, -1.0, ConstraintsDriver0, 1, -2
*Equation
2
Edge2, 2, 1.0, Edge1, 2, -1.0
*Equation
2
Edge2, 3, 1.0, Edge1, 3, -1.0
*Equation
4
Edge3, 1, 1.0, Edge1, 1, -1.0, ConstraintsDriver0, 1, -2, ConstraintsDriver3, 1, -21
*Equation
3
Edge3, 2, 1.0, Edge1, 2, -1.0, ConstraintsDriver1, 1, -21
*Equation
2
Edge3, 3, 1.0, Edge1, 3, -1.0
*Equation
3
Edge4, 1, 1.0, Edge1, 1, -1.0, ConstraintsDriver3, 1, -21
*Equation
3
Edge4, 2, 1.0, Edge1, 2, -1.0, ConstraintsDriver1, 1, -21
*Equation
2
Edge4, 3, 1.0, Edge1, 3, -1.0
*Equation
3
Edge6, 1, 1.0, Edge5, 1, -1.0, ConstraintsDriver0, 1, -2
*Equation
2
Edge6, 2, 1.0, Edge5, 2, -1.0
*Equation
2
Edge6, 3, 1.0, Edge5, 3, -1.0
*Equation
4
Edge7, 1, 1.0, Edge5, 1, -1.0, ConstraintsDriver4, 1, -1, ConstraintsDriver0, 1, -2
*Equation
3
Edge7, 2, 1.0, Edge5, 2, -1.0, ConstraintsDriver5, 1, -1
*Equation
3
Edge7, 3, 1.0, Edge5, 3, -1.0, ConstraintsDriver2, 1, -1
*Equation
3
Edge8, 1, 1.0, Edge5, 1, -1.0, ConstraintsDriver4, 1, -1
*Equation
3
Edge8, 2, 1.0, Edge5, 2, -1.0, ConstraintsDriver5, 1, -1
*Equation
3
Edge8, 3, 1.0, Edge5, 3, -1.0, Constraints Driver2, 1, -1
*Equation
3
Edge10, 1, 1.0, Edge9, 1, -1.0, ConstraintsDriver3, 1, -21
*Equation
3
Edge10, 2, 1.0, Edge9, 2, -1.0, ConstraintsDriver1, 1, -21
*Equation
2
Edge10, 3, 1.0, Edge9, 3, -1.0
*Equation
4
Edge11, 1, 1.0, Edge9, 1, -1.0, ConstraintsDriver3, 1, -21, ConstraintsDriver4, 1, -1
*Equation
4
Edge11, 2, 1.0, Edge9, 2, -1.0, ConstraintsDriver1, 1, -21, ConstraintsDriver5, 1, -1
*Equation
3
Edge11, 3, 1.0, Edge9, 3, -1.0, ConstraintsDriver2, 1, -1
*Equation
3
Edge12, 1, 1.0, Edge9, 1, -1.0, ConstraintsDriver4, 1, -1
*Equation
3
Edge12, 2, 1.0, Edge9, 2, -1.0, ConstraintsDriver5, 1, -1
*Equation
3
Edge12, 3, 1.0, Edge9, 3, -1.0, ConstraintsDriver2, 1, -1
*Equation
3
MasterNode2, 1, 1.0, MasterNode1, 1, -1.0, ConstraintsDriver0, 1, -2
*Equation
2
MasterNode2, 2, 1.0, MasterNode1, 2, -1.0
*Equation
2
MasterNode2, 3, 1.0, MasterNode1, 3, -1.0
*Equation
4
MasterNode3, 1, 1.0, MasterNode1, 1, -1.0, ConstraintsDriver0, 1, -2, ConstraintsDriver3, 1, -21
*Equation
3
MasterNode3, 2, 1.0, MasterNode1, 2, -1.0, ConstraintsDriver1, 1, -21
*Equation
2
MasterNode3, 3, 1.0, MasterNode1, 3, -1.0
*Equation
3
MasterNode4, 1, 1.0, MasterNode1, 1, -1.0, ConstraintsDriver3, 1, -21
*Equation
3
MasterNode4, 2, 1.0, MasterNode1, 2, -1.0, ConstraintsDriver1, 1, -21
*Equation
2
MasterNode4, 3, 1.0, MasterNode1, 3, -1.0
*Equation
3
MasterNode5, 1, 1.0, MasterNode1, 1, -1.0, ConstraintsDriver4, 1, -1
*Equation
3
MasterNode5, 2, 1.0, MasterNode1, 2, -1.0, ConstraintsDriver5, 1, -1
*Equation
3
MasterNode5, 3, 1.0, MasterNode1, 3, -1.0, ConstraintsDriver2, 1, -1
*Equation
4
MasterNode6, 1, 1.0, MasterNode1, 1, -1.0, ConstraintsDriver4, 1, -1, ConstraintsDriver0, 1, -2
*Equation
3
MasterNode6, 2, 1.0, MasterNode1, 2, -1.0, ConstraintsDriver5, 1, -1
*Equation
3
MasterNode6, 3, 1.0, MasterNode1, 3, -1.0, ConstraintsDriver2, 1, -1
*Equation
5
MasterNode7, 1, 1.0, MasterNode1, 1, -1.0, ConstraintsDriver0, 1, -2, ConstraintsDriver4, 1, -1,
ConstraintsDriver3, 1, -21
*Equation
4
MasterNode7, 2, 1.0, MasterNode1, 2, -1.0, ConstraintsDriver1, 1, -21, ConstraintsDriver5, 1, -1
*Equation
3
MasterNode7, 3, 1.0, MasterNode1, 3, -1.0, ConstraintsDriver2, 1, -1
*Equation
4
MasterNode8, 1, 1.0, MasterNode1, 1, -1.0, ConstraintsDriver3, 1, -21, ConstraintsDriver4, 1, -1
*Equation
4
MasterNode8, 2, 1.0, MasterNode1, 2, -1.0, ConstraintsDriver1, 1, -21, ConstraintsDriver5, 1, -1
*Equation
3
MasterNode8, 3, 1.0, MasterNode1, 3, -1.0, ConstraintsDriver2, 1, -1
*******************
*** CREATE STEP ***
*******************
*** PREDEFINED FIELDS ***
*** Name: Initial temperature 0\BAC all cells   Type: Temperature ***
*Initial Conditions, type=TEMPERATURE
AllNodes, 0.

*Step, Name=Isothermal linear perturbation step, perturbation
Elastic material property computation
*Static

***********************
*** OUTPUT REQUESTS ***
***********************
*Output, field
*Element Output, directions=YES
S,
*** FIELD OUTPUT: Output Request Fx ***
*Node Output, nset=ConstraintsDriver0
U,
*** FIELD OUTPUT: Output Request Fy ***
*Node Output, nset=ConstraintsDriver1
U,
*** FIELD OUTPUT: Ouput Request Fz ***
*Node Output, nset=ConstraintsDriver2
U,
*** FIELD OUTPUT: Output Request Shear_xy ***
*Node Output, nset=ConstraintsDriver3
U,
*** FIELD OUTPUT: Output Request Shear_yz ***
*Node Output, nset=ConstraintsDriver5
U,
*** FIELD OUTPUT: Output Request Shear_zx ***
*Node Output, nset=ConstraintsDriver4
U,

******************
*** LOAD CASES ***
******************
*Load Case, name=Load0
*Boundary, op=NEW
MasterNode1, 1, 1
MasterNode1, 2, 2
MasterNode1, 3, 3
*Cload
ConstraintsDriver0, 1, 42
*End Load Case

*Load Case, name=Load1
*Boundary, op=NEW
MasterNode1, 1, 1
MasterNode1, 2, 2
MasterNode1, 3, 3
*Cload
ConstraintsDriver1, 1, 42
*End Load Case

*Load Case, name=Load2
*Boundary, op=NEW
MasterNode1, 1, 1
MasterNode1, 2, 2
MasterNode1, 3, 3
*Cload
ConstraintsDriver2, 1, 42
*End Load Case

*Load Case, name=Load3
*Boundary, op=NEW
MasterNode1, 1, 1
MasterNode1, 2, 2
MasterNode1, 3, 3
*Cload
ConstraintsDriver3, 1, 42
*End Load Case

*Load Case, name=Load4
*Boundary, op=NEW
MasterNode1, 1, 1
MasterNode1, 2, 2
MasterNode1, 3, 3
*Cload
ConstraintsDriver4, 1, 42
*End Load Case

*Load Case, name=Load5
*Boundary, op=NEW
MasterNode1, 1, 1
MasterNode1, 2, 2
MasterNode1, 3, 3
*Cload
ConstraintsDriver5, 1, 42
*End Load Case


*End Step

*** STEP: Thermomechanical step ***
*Step, name=Thermomechanical step, perturbation
Coefficient of Thermal Expansion computation
*Static
*** PREDEFINED FIELDS ***
*** Name: Temperature steady 1\BAC all cells   Type: Temperature ***
*Temperature
AllNodes, 1.
***********************
*** OUTPUT REQUESTS ***
***********************
*Output, field
*Element Output, directions=YES
S,
*** FIELD OUTPUT: Output Request Fx ***
*Node Output, nset=ConstraintsDriver0
U,
*** FIELD OUTPUT: Output Request Fy ***
*Node Output, nset=ConstraintsDriver1
U,
*** FIELD OUTPUT: Output Request Fz ***
*Node Output, nset=ConstraintsDriver2
U,
*End Step
