*Heading
File generated by TexGen v3.12.2
************
*** MESH ***
************
*Node
1, 0, 0, -0.2
2, 0.0333333, 0, -0.2
3, 0.0666667, 0, -0.2
4, 0.1, 0, -0.2
5, 0.133333, 0, -0.2
6, 0.166667, 0, -0.2
7, 0.2, 0, -0.2
8, 0.233333, 0, -0.2
9, 0.266667, 0, -0.2
10, 0.3, 0, -0.2
11, 0.333333, 0, -0.2
12, 0.366667, 0, -0.2
13, 0.4, 0, -0.2
14, 0.433333, 0, -0.2
15, 0.466667, 0, -0.2
16, 0.5, 0, -0.2
17, 0.533333, 0, -0.2
18, 0.566667, 0, -0.2
19, 0.6, 0, -0.2
20, 0.633333, 0, -0.2
** ... 15356 like lines cut
*Element, Type=C3D8R
1, 2, 33, 32, 1, 963, 994, 993, 962
2, 3, 34, 33, 2, 964, 995, 994, 963
3, 4, 35, 34, 3, 965, 996, 995, 964
4, 5, 36, 35, 4, 966, 997, 996, 965
5, 6, 37, 36, 5, 967, 998, 997, 966
6, 7, 38, 37, 6, 968, 999, 998, 967
7, 8, 39, 38, 7, 969, 1000, 999, 968
8, 9, 40, 39, 8, 970, 1001, 1000, 969
9, 10, 41, 40, 9, 971, 1002, 1001, 970
10, 11, 42, 41, 10, 972, 1003, 1002, 971
11, 12, 43, 42, 11, 973, 1004, 1003, 972
12, 13, 44, 43, 12, 974, 1005, 1004, 973
13, 14, 45, 44, 13, 975, 1006, 1005, 974
14, 15, 46, 45, 14, 976, 1007, 1006, 975
15, 16, 47, 46, 15, 977, 1008, 1007, 976
16, 17, 48, 47, 16, 978, 1009, 1008, 977
17, 18, 49, 48, 17, 979, 1010, 1009, 978
18, 19, 50, 49, 18, 980, 1011, 1010, 979
19, 20, 51, 50, 19, 981, 1012, 1011, 980
20, 21, 52, 51, 20, 982, 1013, 1012, 981
** ... 13480 like lines cut
********************
*** ORIENTATIONS ***
********************
** Orientation vectors
** 1st vector represents the fibre direction
** 2nd vector is an arbitrary vector perpendicular to the first
*Distribution Table, Name=TexGenOrientationVectors
COORD3D,COORD3D
*Distribution, Location=Element, Table=TexGenOrientationVectors, Name=TexGenOrientationVectors, Input=UD_test_complete.ori
*Orientation, Name=TexGenOrientations, Definition=coordinates
TexGenOrientationVectors
1, 0
********************
*** ELEMENT SETS ***
********************
** TexGen generates a number of element sets:
** All - Contains all elements
** Matrix - Contains all elements belonging to the matrix
** YarnX - Where X represents the yarn index
*ElSet, ElSet=AllElements, Generate
1, 13500, 1
*ElSet, ElSet=Matrix
1, 2, 3, 4, 5, 6, 7, 8, 9, 10, 11, 12, 13, 14, 15, 16
17, 18, 19, 20, 21, 22, 23, 24, 25, 26, 27, 28, 29, 30, 31, 32
33, 34, 35, 36, 37, 38, 39, 40, 41, 42, 43, 44, 45, 46, 47, 48
49, 50, 51, 52, 53, 54, 55, 56, 57, 58, 59, 60, 61, 62, 63, 64
65, 66, 67, 68, 69, 70, 71, 72, 73, 74, 75, 76, 77, 78, 79, 80
81, 82, 83, 84, 85, 86, 87, 88, 89, 90, 91, 92, 93, 94, 95, 96
97, 98, 99, 100, 101, 102, 103, 104, 105, 106, 107, 108, 109, 110, 111, 112
113, 114, 115, 116, 117, 118, 119, 120, 121, 122, 123, 124, 125, 126, 127, 128
129, 130, 131, 132, 133, 134, 135, 136, 137, 138, 139, 140, 141, 142, 143, 144
145, 146, 147, 148, 149, 150, 151, 152, 153, 154, 155, 156, 157, 158, 159, 160
161, 162, 163, 164, 165, 166, 167, 168, 169, 170, 171, 172, 173, 174, 175, 176
177, 178, 179, 180, 181, 182, 183, 184, 185, 186, 187, 188, 189, 190, 191, 192
193, 194, 195, 196, 197, 198, 199, 200, 201, 202, 203, 204, 205, 206, 207, 208
209, 210, 211, 212, 213, 214, 215, 216, 217, 218, 219, 220, 221, 222, 223, 224
225, 226, 227, 228, 229, 230, 231, 232, 233, 234, 235, 236, 237, 238, 239, 240
241, 242, 243, 244, 245, 246, 247, 248, 249, 250, 251, 252, 253, 254, 255, 256
257, 258, 259, 260, 261, 262, 263, 264, 265, 266, 267, 268, 269, 270, 271, 272
273, 274, 275, 276, 277, 278, 279, 280, 281, 282, 283, 284, 285, 286, 287, 288
289, 290, 291, 292, 293, 294, 295, 296, 297, 298, 299, 300, 301, 302, 303, 304
305, 306, 307, 308, 309, 310, 311, 312, 313, 314, 315, 316, 317, 318, 319, 320
** ... 479 like lines cut
*ElSet, ElSet=Yarn0
3601, 3602, 3603, 3604, 3605, 3606, 3607, 3608, 3609, 3610, 3611, 3620, 3621, 3622, 3623, 3624
3625, 3626, 3627, 3628, 3629, 3630, 3631, 3632, 3633, 3634, 3635, 3636, 3637, 3638, 3639, 3640
3641, 3650, 3651, 3652, 3653, 3654, 3655, 3656, 3657, 3658, 3659, 3660, 3661, 3662, 3663, 3664
3665, 3666, 3667, 3668, 3669, 3670, 3671, 3680, 3681, 3682, 3683, 3684, 3685, 3686, 3687, 3688
3689, 3690, 3691, 3692, 3693, 3694, 3695, 3696, 3697, 3698, 3699, 3700, 3701, 3710, 3711, 3712
3713, 3714, 3715, 3716, 3717, 3718, 3719, 3720, 3721, 3722, 3723, 3724, 3725, 3726, 3727, 3728
3729, 3730, 3731, 3740, 3741, 3742, 3743, 3744, 3745, 3746, 3747, 3748, 3749, 3750, 3751, 3752
3753, 3754, 3755, 3756, 3757, 3758, 3759, 3760, 3761, 3770, 3771, 3772, 3773, 3774, 3775, 3776
3777, 3778, 3779, 3780, 3781, 3782, 3783, 3784, 3785, 3786, 3787, 3788, 3789, 3790, 3791, 3800
3801, 3802, 3803, 3804, 3805, 3806, 3807, 3808, 3809, 3810, 3811, 3812, 3813, 3814, 3815, 3816
3817, 3818, 3819, 3820, 3821, 3830, 3831, 3832, 3833, 3834, 3835, 3836, 3837, 3838, 3839, 3840
3841, 3842, 3843, 3844, 3845, 3846, 3847, 3848, 3849, 3850, 3851, 3860, 3861, 3862, 3863, 3864
3865, 3866, 3867, 3868, 3869, 3870, 3871, 3872, 3873, 3874, 3875, 3876, 3877, 3878, 3879, 3880
3881, 3890, 3891, 3892, 3893, 3894, 3895, 3896, 3897, 3898, 3899, 3900, 3901, 3902, 3903, 3904
3905, 3906, 3907, 3908, 3909, 3910, 3911, 3920, 3921, 3922, 3923, 3924, 3925, 3926, 3927, 3928
3929, 3930, 3931, 3932, 3933, 3934, 3935, 3936, 3937, 3938, 3939, 3940, 3941, 3950, 3951, 3952
3953, 3954, 3955, 3956, 3957, 3958, 3959, 3960, 3961, 3962, 3963, 3964, 3965, 3966, 3967, 3968
3969, 3970, 3971, 3980, 3981, 3982, 3983, 3984, 3985, 3986, 3987, 3988, 3989, 3990, 3991, 3992
3993, 3994, 3995, 3996, 3997, 3998, 3999, 4000, 4001, 4010, 4011, 4012, 4013, 4014, 4015, 4016
4017, 4018, 4019, 4020, 4021, 4022, 4023, 4024, 4025, 4026, 4027, 4028, 4029, 4030, 4031, 4040
** ... 325 like lines cut
*****************
*** NODE SETS ***
*****************
** AllNodes - Node set containing all elements
*NSet, NSet=AllNodes, Generate
1, 15376, 1
*****************
*** MATERIALS ***
*****************
*Material, Name=Mat0
*Elastic
3e+09, 0.2
*Expansion
6.5e-06
*Material, Name=Mat1
*Elastic, type=ENGINEERING CONSTANTS
2e+11, 1e+10, 1e+10, 0.3, 0.4, 0.4, 5e+09, 5e+09
5e+09
*Expansion, type=ORTHO
-2e-07, 3e-06, 3e-06
*Solid Section, ElSet=Matrix, Material=Mat0
1.0,
*Solid Section, ElSet=Yarn0, Material=Mat1, Orientation=TexGenOrientations
1.0,
************************************
*** PERIODIC BOUNDARY CONDITIONS ***
************************************
*** ConstraintsDriver0 = e_x
*** ConstraintsDriver1 = e_y
*** ConstraintsDriver2 = e_z
*** ConstraintsDriver3 = e_xy
*** ConstraintsDriver4 = e_xz
*** ConstraintsDriver5 = e_yz
*Node
15377, 0, 0, 0
*NSet, NSet=ConstraintsDriver0
15377
*Node
15378, 0, 0, 0
*NSet, NSet=ConstraintsDriver1
15378
*Node
15379, 0, 0, 0
*NSet, NSet=ConstraintsDriver2
15379
*Node
15380, 0, 0, 0
*NSet, NSet=ConstraintsDriver3
15380
*Node
15381, 0, 0, 0
*NSet, NSet=ConstraintsDriver4
15381
*Node
15382, 0, 0, 0
*NSet, NSet=ConstraintsDriver5
15382
*NSet, NSet=FaceA, Unsorted
1023, 1054, 1085, 1116, 1147, 1178, 1209, 1240, 1271, 1302, 1333, 1364, 1395, 1426, 1457, 1488
1519, 1550, 1581, 1612, 1643, 1674, 1705, 1736, 1767, 1798, 1829, 1860, 1891, 1984, 2015, 2046
2077, 2108, 2139, 2170, 2201, 2232, 2263, 2294, 2325, 2356, 2387, 2418, 2449, 2480, 2511, 2542
2573, 2604, 2635, 2666, 2697, 2728, 2759, 2790, 2821, 2852, 2945, 2976, 3007, 3038, 3069, 3100
3131, 3162, 3193, 3224, 3255, 3286, 3317, 3348, 3379, 3410, 3441, 3472, 3503, 3534, 3565, 3596
3627, 3658, 3689, 3720, 3751, 3782, 3813, 3906, 3937, 3968, 3999, 4030, 4061, 4092, 4123, 4154
4185, 4216, 4247, 4278, 4309, 4340, 4371, 4402, 4433, 4464, 4495, 4526, 4557, 4588, 4619, 4650
4681, 4712, 4743, 4774, 4867, 4898, 4929, 4960, 4991, 5022, 5053, 5084, 5115, 5146, 5177, 5208
5239, 5270, 5301, 5332, 5363, 5394, 5425, 5456, 5487, 5518, 5549, 5580, 5611, 5642, 5673, 5704
5735, 5828, 5859, 5890, 5921, 5952, 5983, 6014, 6045, 6076, 6107, 6138, 6169, 6200, 6231, 6262
6293, 6324, 6355, 6386, 6417, 6448, 6479, 6510, 6541, 6572, 6603, 6634, 6665, 6696, 6789, 6820
6851, 6882, 6913, 6944, 6975, 7006, 7037, 7068, 7099, 7130, 7161, 7192, 7223, 7254, 7285, 7316
7347, 7378, 7409, 7440, 7471, 7502, 7533, 7564, 7595, 7626, 7657, 7750, 7781, 7812, 7843, 7874
7905, 7936, 7967, 7998, 8029, 8060, 8091, 8122, 8153, 8184, 8215, 8246, 8277, 8308, 8339, 8370
8401, 8432, 8463, 8494, 8525, 8556, 8587, 8618, 8711, 8742, 8773, 8804, 8835, 8866, 8897, 8928
8959, 8990, 9021, 9052, 9083, 9114, 9145, 9176, 9207, 9238, 9269, 9300, 9331, 9362, 9393, 9424
9455, 9486, 9517, 9548, 9579, 9672, 9703, 9734, 9765, 9796, 9827, 9858, 9889, 9920, 9951, 9982
10013, 10044, 10075, 10106, 10137, 10168, 10199, 10230, 10261, 10292, 10323, 10354, 10385, 10416, 10447, 10478
10509, 10540, 10633, 10664, 10695, 10726, 10757, 10788, 10819, 10850, 10881, 10912, 10943, 10974, 11005, 11036
11067, 11098, 11129, 11160, 11191, 11222, 11253, 11284, 11315, 11346, 11377, 11408, 11439, 11470, 11501, 11594
** ... 6 like lines cut
*NSet, NSet=FaceB, Unsorted
993, 1024, 1055, 1086, 1117, 1148, 1179, 1210, 1241, 1272, 1303, 1334, 1365, 1396, 1427, 1458
1489, 1520, 1551, 1582, 1613, 1644, 1675, 1706, 1737, 1768, 1799, 1830, 1861, 1954, 1985, 2016
2047, 2078, 2109, 2140, 2171, 2202, 2233, 2264, 2295, 2326, 2357, 2388, 2419, 2450, 2481, 2512
2543, 2574, 2605, 2636, 2667, 2698, 2729, 2760, 2791, 2822, 2915, 2946, 2977, 3008, 3039, 3070
3101, 3132, 3163, 3194, 3225, 3256, 3287, 3318, 3349, 3380, 3411, 3442, 3473, 3504, 3535, 3566
3597, 3628, 3659, 3690, 3721, 3752, 3783, 3876, 3907, 3938, 3969, 4000, 4031, 4062, 4093, 4124
4155, 4186, 4217, 4248, 4279, 4310, 4341, 4372, 4403, 4434, 4465, 4496, 4527, 4558, 4589, 4620
4651, 4682, 4713, 4744, 4837, 4868, 4899, 4930, 4961, 4992, 5023, 5054, 5085, 5116, 5147, 5178
5209, 5240, 5271, 5302, 5333, 5364, 5395, 5426, 5457, 5488, 5519, 5550, 5581, 5612, 5643, 5674
5705, 5798, 5829, 5860, 5891, 5922, 5953, 5984, 6015, 6046, 6077, 6108, 6139, 6170, 6201, 6232
6263, 6294, 6325, 6356, 6387, 6418, 6449, 6480, 6511, 6542, 6573, 6604, 6635, 6666, 6759, 6790
6821, 6852, 6883, 6914, 6945, 6976, 7007, 7038, 7069, 7100, 7131, 7162, 7193, 7224, 7255, 7286
7317, 7348, 7379, 7410, 7441, 7472, 7503, 7534, 7565, 7596, 7627, 7720, 7751, 7782, 7813, 7844
7875, 7906, 7937, 7968, 7999, 8030, 8061, 8092, 8123, 8154, 8185, 8216, 8247, 8278, 8309, 8340
8371, 8402, 8433, 8464, 8495, 8526, 8557, 8588, 8681, 8712, 8743, 8774, 8805, 8836, 8867, 8898
8929, 8960, 8991, 9022, 9053, 9084, 9115, 9146, 9177, 9208, 9239, 9270, 9301, 9332, 9363, 9394
9425, 9456, 9487, 9518, 9549, 9642, 9673, 9704, 9735, 9766, 9797, 9828, 9859, 9890, 9921, 9952
9983, 10014, 10045, 10076, 10107, 10138, 10169, 10200, 10231, 10262, 10293, 10324, 10355, 10386, 10417, 10448
10479, 10510, 10603, 10634, 10665, 10696, 10727, 10758, 10789, 10820, 10851, 10882, 10913, 10944, 10975, 11006
11037, 11068, 11099, 11130, 11161, 11192, 11223, 11254, 11285, 11316, 11347, 11378, 11409, 11440, 11471, 11564
** ... 6 like lines cut
*NSet, NSet=FaceC, Unsorted
1893, 1894, 1895, 1896, 1897, 1898, 1899, 1900, 1901, 1902, 1903, 1904, 1905, 1906, 1907, 1908
1909, 1910, 1911, 1912, 1913, 1914, 1915, 1916, 1917, 1918, 1919, 1920, 1921, 2854, 2855, 2856
2857, 2858, 2859, 2860, 2861, 2862, 2863, 2864, 2865, 2866, 2867, 2868, 2869, 2870, 2871, 2872
2873, 2874, 2875, 2876, 2877, 2878, 2879, 2880, 2881, 2882, 3815, 3816, 3817, 3818, 3819, 3820
3821, 3822, 3823, 3824, 3825, 3826, 3827, 3828, 3829, 3830, 3831, 3832, 3833, 3834, 3835, 3836
3837, 3838, 3839, 3840, 3841, 3842, 3843, 4776, 4777, 4778, 4779, 4780, 4781, 4782, 4783, 4784
4785, 4786, 4787, 4788, 4789, 4790, 4791, 4792, 4793, 4794, 4795, 4796, 4797, 4798, 4799, 4800
4801, 4802, 4803, 4804, 5737, 5738, 5739, 5740, 5741, 5742, 5743, 5744, 5745, 5746, 5747, 5748
5749, 5750, 5751, 5752, 5753, 5754, 5755, 5756, 5757, 5758, 5759, 5760, 5761, 5762, 5763, 5764
5765, 6698, 6699, 6700, 6701, 6702, 6703, 6704, 6705, 6706, 6707, 6708, 6709, 6710, 6711, 6712
6713, 6714, 6715, 6716, 6717, 6718, 6719, 6720, 6721, 6722, 6723, 6724, 6725, 6726, 7659, 7660
7661, 7662, 7663, 7664, 7665, 7666, 7667, 7668, 7669, 7670, 7671, 7672, 7673, 7674, 7675, 7676
7677, 7678, 7679, 7680, 7681, 7682, 7683, 7684, 7685, 7686, 7687, 8620, 8621, 8622, 8623, 8624
8625, 8626, 8627, 8628, 8629, 8630, 8631, 8632, 8633, 8634, 8635, 8636, 8637, 8638, 8639, 8640
8641, 8642, 8643, 8644, 8645, 8646, 8647, 8648, 9581, 9582, 9583, 9584, 9585, 9586, 9587, 9588
9589, 9590, 9591, 9592, 9593, 9594, 9595, 9596, 9597, 9598, 9599, 9600, 9601, 9602, 9603, 9604
9605, 9606, 9607, 9608, 9609, 10542, 10543, 10544, 10545, 10546, 10547, 10548, 10549, 10550, 10551, 10552
10553, 10554, 10555, 10556, 10557, 10558, 10559, 10560, 10561, 10562, 10563, 10564, 10565, 10566, 10567, 10568
10569, 10570, 11503, 11504, 11505, 11506, 11507, 11508, 11509, 11510, 11511, 11512, 11513, 11514, 11515, 11516
11517, 11518, 11519, 11520, 11521, 11522, 11523, 11524, 11525, 11526, 11527, 11528, 11529, 11530, 11531, 12464
** ... 6 like lines cut
*NSet, NSet=FaceD, Unsorted
963, 964, 965, 966, 967, 968, 969, 970, 971, 972, 973, 974, 975, 976, 977, 978
979, 980, 981, 982, 983, 984, 985, 986, 987, 988, 989, 990, 991, 1924, 1925, 1926
1927, 1928, 1929, 1930, 1931, 1932, 1933, 1934, 1935, 1936, 1937, 1938, 1939, 1940, 1941, 1942
1943, 1944, 1945, 1946, 1947, 1948, 1949, 1950, 1951, 1952, 2885, 2886, 2887, 2888, 2889, 2890
2891, 2892, 2893, 2894, 2895, 2896, 2897, 2898, 2899, 2900, 2901, 2902, 2903, 2904, 2905, 2906
2907, 2908, 2909, 2910, 2911, 2912, 2913, 3846, 3847, 3848, 3849, 3850, 3851, 3852, 3853, 3854
3855, 3856, 3857, 3858, 3859, 3860, 3861, 3862, 3863, 3864, 3865, 3866, 3867, 3868, 3869, 3870
3871, 3872, 3873, 3874, 4807, 4808, 4809, 4810, 4811, 4812, 4813, 4814, 4815, 4816, 4817, 4818
4819, 4820, 4821, 4822, 4823, 4824, 4825, 4826, 4827, 4828, 4829, 4830, 4831, 4832, 4833, 4834
4835, 5768, 5769, 5770, 5771, 5772, 5773, 5774, 5775, 5776, 5777, 5778, 5779, 5780, 5781, 5782
5783, 5784, 5785, 5786, 5787, 5788, 5789, 5790, 5791, 5792, 5793, 5794, 5795, 5796, 6729, 6730
6731, 6732, 6733, 6734, 6735, 6736, 6737, 6738, 6739, 6740, 6741, 6742, 6743, 6744, 6745, 6746
6747, 6748, 6749, 6750, 6751, 6752, 6753, 6754, 6755, 6756, 6757, 7690, 7691, 7692, 7693, 7694
7695, 7696, 7697, 7698, 7699, 7700, 7701, 7702, 7703, 7704, 7705, 7706, 7707, 7708, 7709, 7710
7711, 7712, 7713, 7714, 7715, 7716, 7717, 7718, 8651, 8652, 8653, 8654, 8655, 8656, 8657, 8658
8659, 8660, 8661, 8662, 8663, 8664, 8665, 8666, 8667, 8668, 8669, 8670, 8671, 8672, 8673, 8674
8675, 8676, 8677, 8678, 8679, 9612, 9613, 9614, 9615, 9616, 9617, 9618, 9619, 9620, 9621, 9622
9623, 9624, 9625, 9626, 9627, 9628, 9629, 9630, 9631, 9632, 9633, 9634, 9635, 9636, 9637, 9638
9639, 9640, 10573, 10574, 10575, 10576, 10577, 10578, 10579, 10580, 10581, 10582, 10583, 10584, 10585, 10586
10587, 10588, 10589, 10590, 10591, 10592, 10593, 10594, 10595, 10596, 10597, 10598, 10599, 10600, 10601, 11534
** ... 6 like lines cut
*NSet, NSet=FaceE, Unsorted
14448, 14449, 14450, 14451, 14452, 14453, 14454, 14455, 14456, 14457, 14458, 14459, 14460, 14461, 14462, 14463
14464, 14465, 14466, 14467, 14468, 14469, 14470, 14471, 14472, 14473, 14474, 14475, 14476, 14479, 14480, 14481
14482, 14483, 14484, 14485, 14486, 14487, 14488, 14489, 14490, 14491, 14492, 14493, 14494, 14495, 14496, 14497
14498, 14499, 14500, 14501, 14502, 14503, 14504, 14505, 14506, 14507, 14510, 14511, 14512, 14513, 14514, 14515
14516, 14517, 14518, 14519, 14520, 14521, 14522, 14523, 14524, 14525, 14526, 14527, 14528, 14529, 14530, 14531
14532, 14533, 14534, 14535, 14536, 14537, 14538, 14541, 14542, 14543, 14544, 14545, 14546, 14547, 14548, 14549
14550, 14551, 14552, 14553, 14554, 14555, 14556, 14557, 14558, 14559, 14560, 14561, 14562, 14563, 14564, 14565
14566, 14567, 14568, 14569, 14572, 14573, 14574, 14575, 14576, 14577, 14578, 14579, 14580, 14581, 14582, 14583
14584, 14585, 14586, 14587, 14588, 14589, 14590, 14591, 14592, 14593, 14594, 14595, 14596, 14597, 14598, 14599
14600, 14603, 14604, 14605, 14606, 14607, 14608, 14609, 14610, 14611, 14612, 14613, 14614, 14615, 14616, 14617
14618, 14619, 14620, 14621, 14622, 14623, 14624, 14625, 14626, 14627, 14628, 14629, 14630, 14631, 14634, 14635
14636, 14637, 14638, 14639, 14640, 14641, 14642, 14643, 14644, 14645, 14646, 14647, 14648, 14649, 14650, 14651
14652, 14653, 14654, 14655, 14656, 14657, 14658, 14659, 14660, 14661, 14662, 14665, 14666, 14667, 14668, 14669
14670, 14671, 14672, 14673, 14674, 14675, 14676, 14677, 14678, 14679, 14680, 14681, 14682, 14683, 14684, 14685
14686, 14687, 14688, 14689, 14690, 14691, 14692, 14693, 14696, 14697, 14698, 14699, 14700, 14701, 14702, 14703
14704, 14705, 14706, 14707, 14708, 14709, 14710, 14711, 14712, 14713, 14714, 14715, 14716, 14717, 14718, 14719
14720, 14721, 14722, 14723, 14724, 14727, 14728, 14729, 14730, 14731, 14732, 14733, 14734, 14735, 14736, 14737
14738, 14739, 14740, 14741, 14742, 14743, 14744, 14745, 14746, 14747, 14748, 14749, 14750, 14751, 14752, 14753
14754, 14755, 14758, 14759, 14760, 14761, 14762, 14763, 14764, 14765, 14766, 14767, 14768, 14769, 14770, 14771
14772, 14773, 14774, 14775, 14776, 14777, 14778, 14779, 14780, 14781, 14782, 14783, 14784, 14785, 14786, 14789
** ... 33 like lines cut
*NSet, NSet=FaceF, Unsorted
33, 34, 35, 36, 37, 38, 39, 40, 41, 42, 43, 44, 45, 46, 47, 48
49, 50, 51, 52, 53, 54, 55, 56, 57, 58, 59, 60, 61, 64, 65, 66
67, 68, 69, 70, 71, 72, 73, 74, 75, 76, 77, 78, 79, 80, 81, 82
83, 84, 85, 86, 87, 88, 89, 90, 91, 92, 95, 96, 97, 98, 99, 100
101, 102, 103, 104, 105, 106, 107, 108, 109, 110, 111, 112, 113, 114, 115, 116
117, 118, 119, 120, 121, 122, 123, 126, 127, 128, 129, 130, 131, 132, 133, 134
135, 136, 137, 138, 139, 140, 141, 142, 143, 144, 145, 146, 147, 148, 149, 150
151, 152, 153, 154, 157, 158, 159, 160, 161, 162, 163, 164, 165, 166, 167, 168
169, 170, 171, 172, 173, 174, 175, 176, 177, 178, 179, 180, 181, 182, 183, 184
185, 188, 189, 190, 191, 192, 193, 194, 195, 196, 197, 198, 199, 200, 201, 202
203, 204, 205, 206, 207, 208, 209, 210, 211, 212, 213, 214, 215, 216, 219, 220
221, 222, 223, 224, 225, 226, 227, 228, 229, 230, 231, 232, 233, 234, 235, 236
237, 238, 239, 240, 241, 242, 243, 244, 245, 246, 247, 250, 251, 252, 253, 254
255, 256, 257, 258, 259, 260, 261, 262, 263, 264, 265, 266, 267, 268, 269, 270
271, 272, 273, 274, 275, 276, 277, 278, 281, 282, 283, 284, 285, 286, 287, 288
289, 290, 291, 292, 293, 294, 295, 296, 297, 298, 299, 300, 301, 302, 303, 304
305, 306, 307, 308, 309, 312, 313, 314, 315, 316, 317, 318, 319, 320, 321, 322
323, 324, 325, 326, 327, 328, 329, 330, 331, 332, 333, 334, 335, 336, 337, 338
339, 340, 343, 344, 345, 346, 347, 348, 349, 350, 351, 352, 353, 354, 355, 356
357, 358, 359, 360, 361, 362, 363, 364, 365, 366, 367, 368, 369, 370, 371, 374
** ... 33 like lines cut
*NSet, NSet=Edge1, Unsorted
962, 1923, 2884, 3845, 4806, 5767, 6728, 7689, 8650, 9611, 10572, 11533, 12494, 13455
*NSet, NSet=Edge2, Unsorted
992, 1953, 2914, 3875, 4836, 5797, 6758, 7719, 8680, 9641, 10602, 11563, 12524, 13485
*NSet, NSet=Edge3, Unsorted
1922, 2883, 3844, 4805, 5766, 6727, 7688, 8649, 9610, 10571, 11532, 12493, 13454, 14415
*NSet, NSet=Edge4, Unsorted
1892, 2853, 3814, 4775, 5736, 6697, 7658, 8619, 9580, 10541, 11502, 12463, 13424, 14385
*NSet, NSet=Edge5, Unsorted
32, 63, 94, 125, 156, 187, 218, 249, 280, 311, 342, 373, 404, 435, 466, 497
528, 559, 590, 621, 652, 683, 714, 745, 776, 807, 838, 869, 900
*NSet, NSet=Edge6, Unsorted
62, 93, 124, 155, 186, 217, 248, 279, 310, 341, 372, 403, 434, 465, 496, 527
558, 589, 620, 651, 682, 713, 744, 775, 806, 837, 868, 899, 930
*NSet, NSet=Edge7, Unsorted
14477, 14508, 14539, 14570, 14601, 14632, 14663, 14694, 14725, 14756, 14787, 14818, 14849, 14880, 14911, 14942
14973, 15004, 15035, 15066, 15097, 15128, 15159, 15190, 15221, 15252, 15283, 15314, 15345
*NSet, NSet=Edge8, Unsorted
14447, 14478, 14509, 14540, 14571, 14602, 14633, 14664, 14695, 14726, 14757, 14788, 14819, 14850, 14881, 14912
14943, 14974, 15005, 15036, 15067, 15098, 15129, 15160, 15191, 15222, 15253, 15284, 15315
*NSet, NSet=Edge9, Unsorted
2, 3, 4, 5, 6, 7, 8, 9, 10, 11, 12, 13, 14, 15, 16, 17
18, 19, 20, 21, 22, 23, 24, 25, 26, 27, 28, 29, 30
*NSet, NSet=Edge10, Unsorted
932, 933, 934, 935, 936, 937, 938, 939, 940, 941, 942, 943, 944, 945, 946, 947
948, 949, 950, 951, 952, 953, 954, 955, 956, 957, 958, 959, 960
*NSet, NSet=Edge11, Unsorted
15347, 15348, 15349, 15350, 15351, 15352, 15353, 15354, 15355, 15356, 15357, 15358, 15359, 15360, 15361, 15362
15363, 15364, 15365, 15366, 15367, 15368, 15369, 15370, 15371, 15372, 15373, 15374, 15375
*NSet, NSet=Edge12, Unsorted
14417, 14418, 14419, 14420, 14421, 14422, 14423, 14424, 14425, 14426, 14427, 14428, 14429, 14430, 14431, 14432
14433, 14434, 14435, 14436, 14437, 14438, 14439, 14440, 14441, 14442, 14443, 14444, 14445
*NSet, NSet=MasterNode1, Unsorted
1
*NSet, NSet=MasterNode2, Unsorted
31
*NSet, NSet=MasterNode3, Unsorted
961
*NSet, NSet=MasterNode4, Unsorted
931
*NSet, NSet=MasterNode5, Unsorted
14416
*NSet, NSet=MasterNode6, Unsorted
14446
*NSet, NSet=MasterNode7, Unsorted
15376
*NSet, NSet=MasterNode8, Unsorted
15346
***************************
*** BOUNDARY CONDITIONS ***
***************************
*** Name: Translation stop Vertex 1 Type: Displacement/Rotation
*Boundary
MasterNode1, 1, 1
MasterNode1, 2, 2
MasterNode1, 3, 3

*****************
*** EQUATIONS ***
*****************
*Equation
3
FaceA, 1, 1.0, FaceB, 1, -1.0, ConstraintsDriver0, 1, -1
*Equation
2
FaceA, 2, 1.0, FaceB, 2, -1.0
*Equation
2
FaceA, 3, 1.0, FaceB, 3, -1.0
*Equation
3
FaceC, 1, 1.0, FaceD, 1, -1.0, ConstraintsDriver3, 1, -1
*Equation
3
FaceC, 2, 1.0, FaceD, 2, -1.0, ConstraintsDriver1, 1, -1
*Equation
2
FaceC, 3, 1.0, FaceD, 3, -1.0
*Equation
3
FaceE, 1, 1.0, FaceF, 1, -1.0, ConstraintsDriver4, 1, -0.4
*Equation
3
FaceE, 2, 1.0, FaceF, 2, -1.0, ConstraintsDriver5, 1, -0.4
*Equation
3
FaceE, 3, 1.0, FaceF, 3, -1.0, ConstraintsDriver2, 1, -0.4
*Equation
3
Edge2, 1, 1.0, Edge1, 1, -1.0, ConstraintsDriver0, 1, -1
*Equation
2
Edge2, 2, 1.0, Edge1, 2, -1.0
*Equation
2
Edge2, 3, 1.0, Edge1, 3, -1.0
*Equation
4
Edge3, 1, 1.0, Edge1, 1, -1.0, ConstraintsDriver0, 1, -1, ConstraintsDriver3, 1, -1
*Equation
3
Edge3, 2, 1.0, Edge1, 2, -1.0, ConstraintsDriver1, 1, -1
*Equation
2
Edge3, 3, 1.0, Edge1, 3, -1.0
*Equation
3
Edge4, 1, 1.0, Edge1, 1, -1.0, ConstraintsDriver3, 1, -1
*Equation
3
Edge4, 2, 1.0, Edge1, 2, -1.0, ConstraintsDriver1, 1, -1
*Equation
2
Edge4, 3, 1.0, Edge1, 3, -1.0
*Equation
3
Edge6, 1, 1.0, Edge5, 1, -1.0, ConstraintsDriver0, 1, -1
*Equation
2
Edge6, 2, 1.0, Edge5, 2, -1.0
*Equation
2
Edge6, 3, 1.0, Edge5, 3, -1.0
*Equation
4
Edge7, 1, 1.0, Edge5, 1, -1.0, ConstraintsDriver4, 1, -0.4, ConstraintsDriver0, 1, -1
*Equation
3
Edge7, 2, 1.0, Edge5, 2, -1.0, ConstraintsDriver5, 1, -0.4
*Equation
3
Edge7, 3, 1.0, Edge5, 3, -1.0, ConstraintsDriver2, 1, -0.4
*Equation
3
Edge8, 1, 1.0, Edge5, 1, -1.0, ConstraintsDriver4, 1, -0.4
*Equation
3
Edge8, 2, 1.0, Edge5, 2, -1.0, ConstraintsDriver5, 1, -0.4
*Equation
3
Edge8, 3, 1.0, Edge5, 3, -1.0, ConstraintsDriver2, 1, -0.4
*Equation
3
Edge10, 1, 1.0, Edge9, 1, -1.0, ConstraintsDriver3, 1, -1
*Equation
3
Edge10, 2, 1.0, Edge9, 2, -1.0, ConstraintsDriver1, 1, -1
*Equation
2
Edge10, 3, 1.0, Edge9, 3, -1.0
*Equation
4
Edge11, 1, 1.0, Edge9, 1, -1.0, ConstraintsDriver3, 1, -1, ConstraintsDriver4, 1, -0.4
*Equation
4
Edge11, 2, 1.0, Edge9, 2, -1.0, ConstraintsDriver1, 1, -1, ConstraintsDriver5, 1, -0.4
*Equation
3
Edge11, 3, 1.0, Edge9, 3, -1.0, ConstraintsDriver2, 1, -0.4
*Equation
3
Edge12, 1, 1.0, Edge9, 1, -1.0, ConstraintsDriver4, 1, -0.4
*Equation
3
Edge12, 2, 1.0, Edge9, 2, -1.0, ConstraintsDriver5, 1, -0.4
*Equation
3
Edge12, 3, 1.0, Edge9, 3, -1.0, ConstraintsDriver2, 1, -0.4
*Equation
3
MasterNode2, 1, 1.0, MasterNode1, 1, -1.0, ConstraintsDriver0, 1, -1
*Equation
2
MasterNode2, 2, 1.0, MasterNode1, 2, -1.0
*Equation
2
MasterNode2, 3, 1.0, MasterNode1, 3, -1.0
*Equation
4
MasterNode3, 1, 1.0, MasterNode1, 1, -1.0, ConstraintsDriver0, 1, -1, ConstraintsDriver3, 1, -1
*Equation
3
MasterNode3, 2, 1.0, MasterNode1, 2, -1.0, ConstraintsDriver1, 1, -1
*Equation
2
MasterNode3, 3, 1.0, MasterNode1, 3, -1.0
*Equation
3
MasterNode4, 1, 1.0, MasterNode1, 1, -1.0, ConstraintsDriver3, 1, -1
*Equation
3
MasterNode4, 2, 1.0, MasterNode1, 2, -1.0, ConstraintsDriver1, 1, -1
*Equation
2
MasterNode4, 3, 1.0, MasterNode1, 3, -1.0
*Equation
3
MasterNode5, 1, 1.0, MasterNode1, 1, -1.0, ConstraintsDriver4, 1, -0.4
*Equation
3
MasterNode5, 2, 1.0, MasterNode1, 2, -1.0, ConstraintsDriver5, 1, -0.4
*Equation
3
MasterNode5, 3, 1.0, MasterNode1, 3, -1.0, ConstraintsDriver2, 1, -0.4
*Equation
4
MasterNode6, 1, 1.0, MasterNode1, 1, -1.0, ConstraintsDriver4, 1, -0.4, ConstraintsDriver0, 1, -1
*Equation
3
MasterNode6, 2, 1.0, MasterNode1, 2, -1.0, ConstraintsDriver5, 1, -0.4
*Equation
3
MasterNode6, 3, 1.0, MasterNode1, 3, -1.0, ConstraintsDriver2, 1, -0.4
*Equation
5
MasterNode7, 1, 1.0, MasterNode1, 1, -1.0, ConstraintsDriver0, 1, -1, ConstraintsDriver4, 1, -0.4,
ConstraintsDriver3, 1, -1
*Equation
4
MasterNode7, 2, 1.0, MasterNode1, 2, -1.0, ConstraintsDriver1, 1, -1, ConstraintsDriver5, 1, -0.4
*Equation
3
MasterNode7, 3, 1.0, MasterNode1, 3, -1.0, ConstraintsDriver2, 1, -0.4
*Equation
4
MasterNode8, 1, 1.0, MasterNode1, 1, -1.0, ConstraintsDriver3, 1, -1, ConstraintsDriver4, 1, -0.4
*Equation
4
MasterNode8, 2, 1.0, MasterNode1, 2, -1.0, ConstraintsDriver1, 1, -1, ConstraintsDriver5, 1, -0.4
*Equation
3
MasterNode8, 3, 1.0, MasterNode1, 3, -1.0, ConstraintsDriver2, 1, -0.4
*******************
*** CREATE STEP ***
*******************
*** PREDEFINED FIELDS ***
*** Name: Initial temperature 0\BAC all cells   Type: Temperature ***
*Initial Conditions, type=TEMPERATURE
AllNodes, 0.

*Step, Name=Isothermal linear perturbation step, perturbation
Elastic material property computation
*Static

***********************
*** OUTPUT REQUESTS ***
***********************
*Output, field
*Element Output, directions=YES
S,
*** FIELD OUTPUT: Output Request Fx ***
*Node Output, nset=ConstraintsDriver0
U,
*** FIELD OUTPUT: Output Request Fy ***
*Node Output, nset=ConstraintsDriver1
U,
*** FIELD OUTPUT: Ouput Request Fz ***
*Node Output, nset=ConstraintsDriver2
U,
*** FIELD OUTPUT: Output Request Shear_xy ***
*Node Output, nset=ConstraintsDriver3
U,
*** FIELD OUTPUT: Output Request Shear_zx ***
*Node Output, nset=ConstraintsDriver4
U,
*** FIELD OUTPUT: Output Request Shear_yz ***
*Node Output, nset=ConstraintsDriver5
U,

******************
*** LOAD CASES ***
******************
*Load Case, name=Load0
*Boundary, op=NEW
MasterNode1, 1, 1
MasterNode1, 2, 2
MasterNode1, 3, 3
*Cload
ConstraintsDriver0, 1, 0.4
*End Load Case

*Load Case, name=Load1
*Boundary, op=NEW
MasterNode1, 1, 1
MasterNode1, 2, 2
MasterNode1, 3, 3
*Cload
ConstraintsDriver1, 1, 0.4
*End Load Case

*Load Case, name=Load2
*Boundary, op=NEW
MasterNode1, 1, 1
MasterNode1, 2, 2
MasterNode1, 3, 3
*Cload
ConstraintsDriver2, 1, 0.4
*End Load Case

*Load Case, name=Load3
*Boundary, op=NEW
MasterNode1, 1, 1
MasterNode1, 2, 2
MasterNode1, 3, 3
*Cload
ConstraintsDriver3, 1, 0.4
*End Load Case

*Load Case, name=Load4
*Boundary, op=NEW
MasterNode1, 1, 1
MasterNode1, 2, 2
MasterNode1, 3, 3
*Cload
ConstraintsDriver4, 1, 0.4
*End Load Case

*Load Case, name=Load5
*Boundary, op=NEW
MasterNode1, 1, 1
MasterNode1, 2, 2
MasterNode1, 3, 3
*Cload
ConstraintsDriver5, 1, 0.4
*End Load Case


*End Step

*** STEP: Thermomechanical step ***
*Step, name=Thermomechanical step, perturbation
Coefficient of Thermal Expansion computation
*Static
*** PREDEFINED FIELDS ***
*** Name: Temperature steady 1\BAC all cells   Type: Temperature ***
*Temperature
AllNodes, 1.
***********************
*** OUTPUT REQUESTS ***
***********************
*Output, field
*Element Output, directions=YES
S,
*** FIELD OUTPUT: Output Request Fx ***
*Node Output, nset=ConstraintsDriver0
U,
*** FIELD OUTPUT: Output Request Fy ***
*Node Output, nset=ConstraintsDriver1
U,
*** FIELD OUTPUT: Output Request Fz ***
*Node Output, nset=ConstraintsDriver2
U,
*End Step
