*Heading
File generated by TexGen v3.12.2
************
*** MESH ***
************
*Node
1, -8.72561e-17, 0, -0.1
2, 0.0743064, 0, -0.0993825
3, 0.146783, 0, -0.0975221
4, 0.215645, 0, -0.0943931
5, 0.279198, 0, -0.0899454
6, 0.335876, 0, -0.0840896
7, 0.384283, 0, -0.0766672
8, 0.423228, 0, -0.0673788
9, 0.451752, 0, -0.0555893
10, 0.469152, 0, -0.0395518
11, -2.4027e-17, 0, 9.62294e-11
12, 0.0692501, 0, 9.39321e-11
13, 0.136208, 0, 9.04014e-11
14, 0.199472, 0, 8.56436e-11
15, 0.2578, 0, 7.96411e-11
16, 0.310152, 0, 7.23412e-11
17, 0.355739, 0, 6.36319e-11
18, 0.394101, 0, 5.32907e-11
19, 0.425265, 0, 4.0851e-11
20, 0.450227, 0, 2.51399e-11
** ... 1224 like lines cut
*Element, Type=C3D6
1, 41, 52, 51, 10, 21, 20
2, 51, 52, 62, 20, 21, 31
3, 72, 83, 82, 41, 52, 51
4, 82, 83, 93, 51, 52, 62
5, 103, 114, 113, 72, 83, 82
6, 113, 114, 124, 82, 83, 93
7, 134, 145, 144, 103, 114, 113
8, 144, 145, 155, 113, 114, 124
9, 165, 176, 175, 134, 145, 144
10, 175, 176, 186, 144, 145, 155
11, 196, 207, 206, 165, 176, 175
12, 206, 207, 217, 175, 176, 186
13, 227, 238, 237, 196, 207, 206
14, 237, 238, 248, 206, 207, 217
15, 258, 269, 268, 227, 238, 237
16, 268, 269, 279, 237, 238, 248
17, 289, 300, 299, 258, 269, 268
18, 299, 300, 310, 268, 269, 279
19, 320, 331, 330, 289, 300, 299
20, 330, 331, 341, 299, 300, 310
** ... 56 like lines cut
*Element, Type=C3D8R
77, 32, 33, 43, 42, 1, 2, 12, 11
78, 33, 34, 44, 43, 2, 3, 13, 12
79, 34, 35, 45, 44, 3, 4, 14, 13
80, 35, 36, 46, 45, 4, 5, 15, 14
81, 36, 37, 47, 46, 5, 6, 16, 15
82, 37, 38, 48, 47, 6, 7, 17, 16
83, 38, 39, 49, 48, 7, 8, 18, 17
84, 39, 40, 50, 49, 8, 9, 19, 18
85, 40, 41, 51, 50, 9, 10, 20, 19
86, 42, 43, 54, 53, 11, 12, 23, 22
87, 43, 44, 55, 54, 12, 13, 24, 23
88, 44, 45, 56, 55, 13, 14, 25, 24
89, 45, 46, 57, 56, 14, 15, 26, 25
90, 46, 47, 58, 57, 15, 16, 27, 26
91, 47, 48, 59, 58, 16, 17, 28, 27
92, 48, 49, 60, 59, 17, 18, 29, 28
93, 49, 50, 61, 60, 18, 19, 30, 29
94, 50, 51, 62, 61, 19, 20, 31, 30
95, 63, 64, 74, 73, 32, 33, 43, 42
96, 64, 65, 75, 74, 33, 34, 44, 43
** ... 664 like lines cut
********************
*** ORIENTATIONS ***
********************
** Orientation vectors
** 1st vector represents the fibre direction
** 2nd vector is an arbitrary vector perpendicular to the first
*Distribution Table, Name=TexGenOrientationVectors
COORD3D,COORD3D
*Distribution, Location=Element, Table=TexGenOrientationVectors, Name=TexGenOrientationVectors, Input=UD_test.ori
*Orientation, Name=TexGenOrientations, Definition=coordinates
TexGenOrientationVectors
1, 0
********************
*** ELEMENT SETS ***
********************
** TexGen generates a number of element sets:
** All - Contains all elements
** Matrix - Contains all elements belonging to the matrix
** YarnX - Where X represents the yarn index
*ElSet, ElSet=All, Generate
1, 760, 1
*ElSet, ElSet=Yarn0
1, 2, 3, 4, 5, 6, 7, 8, 9, 10, 11, 12, 13, 14, 15, 16
17, 18, 19, 20, 21, 22, 23, 24, 25, 26, 27, 28, 29, 30, 31, 32
33, 34, 35, 36, 37, 38, 39, 40, 41, 42, 43, 44, 45, 46, 47, 48
49, 50, 51, 52, 53, 54, 55, 56, 57, 58, 59, 60, 61, 62, 63, 64
65, 66, 67, 68, 69, 70, 71, 72, 73, 74, 75, 76, 77, 78, 79, 80
81, 82, 83, 84, 85, 86, 87, 88, 89, 90, 91, 92, 93, 94, 95, 96
97, 98, 99, 100, 101, 102, 103, 104, 105, 106, 107, 108, 109, 110, 111, 112
113, 114, 115, 116, 117, 118, 119, 120, 121, 122, 123, 124, 125, 126, 127, 128
129, 130, 131, 132, 133, 134, 135, 136, 137, 138, 139, 140, 141, 142, 143, 144
145, 146, 147, 148, 149, 150, 151, 152, 153, 154, 155, 156, 157, 158, 159, 160
161, 162, 163, 164, 165, 166, 167, 168, 169, 170, 171, 172, 173, 174, 175, 176
177, 178, 179, 180, 181, 182, 183, 184, 185, 186, 187, 188, 189, 190, 191, 192
193, 194, 195, 196, 197, 198, 199, 200, 201, 202, 203, 204, 205, 206, 207, 208
209, 210, 211, 212, 213, 214, 215, 216, 217, 218, 219, 220, 221, 222, 223, 224
225, 226, 227, 228, 229, 230, 231, 232, 233, 234, 235, 236, 237, 238, 239, 240
241, 242, 243, 244, 245, 246, 247, 248, 249, 250, 251, 252, 253, 254, 255, 256
257, 258, 259, 260, 261, 262, 263, 264, 265, 266, 267, 268, 269, 270, 271, 272
273, 274, 275, 276, 277, 278, 279, 280, 281, 282, 283, 284, 285, 286, 287, 288
289, 290, 291, 292, 293, 294, 295, 296, 297, 298, 299, 300, 301, 302, 303, 304
305, 306, 307, 308, 309, 310, 311, 312, 313, 314, 315, 316, 317, 318, 319, 320
** ... 28 like lines cut
*****************
*** MATERIALS ***
*****************
*Material, Name=Mat0
*Elastic
3e+09, 0.2
*Damping, alpha= 3.75e+6
*Density
1.37e-09,
*DepVar
5
*Material, Name=Mat1
*Elastic, type=ENGINEERING CONSTANTS
2e+11, 1e+10, 1e+10, 0.3, 0.4, 0.4, 5e+09, 5e+09
5e+09
*Damping, alpha= 3.75e+6
*Density
1.37e-09,
*DepVar
5
*Solid Section, ElSet=Yarn0, Material=Mat1, Orientation=TexGenOrientations, controls=HourglassEnhanced
1.0,
*Section Controls, Name=HourglassEnhanced, Hourglass=Enhanced, SECOND ORDER ACCURACY=YES
** Note: Additional element data are stored as a depvars:
********************
*** ELEMENT DATA ***
********************
** Element data stored as a depvars 
** 1 - Yarn Index (-1 for matrix, first yarn starting at 0) 
** 2/3 - Location (x and y cross-section coordinates of element relative to yarn centerline) 
** 4 - Volume fraction 
** 5 - Distance of element from the surface of the yarn (for yarn elements only, distance is negative) 
*Initial Conditions, Type=Solution, Input=UD_test.eld
***************************
*** SURFACE DEFINITIONS ***
***************************
*Surface, Name=Yarn0Lower, Type=Element
77, S3
78, S3
79, S3
80, S3
81, S3
82, S3
83, S3
84, S3
85, S3
95, S3
96, S3
97, S3
98, S3
99, S3
100, S3
101, S3
102, S3
103, S3
113, S3
114, S3
** ... 360 like lines cut
*Surface, Name=Yarn0Upper, Type=Element
86, S5
87, S5
88, S5
89, S5
90, S5
91, S5
92, S5
93, S5
94, S5
104, S5
105, S5
106, S5
107, S5
108, S5
109, S5
110, S5
111, S5
112, S5
122, S5
123, S5
** ... 360 like lines cut
************************************
*** PERIODIC BOUNDARY CONDITIONS ***
************************************
*NSet, NSet=Bound0A, Unsorted
1, 11, 22, 32, 42, 53, 63, 73, 84, 94, 104, 115, 125, 135, 146, 156
166, 177, 187, 197, 208, 218, 228, 239, 249, 259, 270, 280, 290, 301, 311, 321
332, 342, 352, 363, 373, 383, 394, 404, 414, 425, 435, 445, 456, 466, 476, 487
497, 507, 518, 528, 538, 549, 559, 569, 580, 590, 600, 611
*NSet, NSet=Bound0B, Unsorted
630, 641, 651, 661, 672, 682, 692, 703, 713, 723, 734, 744, 754, 765, 775, 785
796, 806, 816, 827, 837, 847, 858, 868, 878, 889, 899, 909, 920, 930, 940, 951
961, 971, 982, 992, 1002, 1013, 1023, 1033, 1044, 1054, 1064, 1075, 1085, 1095, 1106, 1116
1126, 1137, 1147, 1157, 1168, 1178, 1188, 1199, 1209, 1219, 1230, 1240
*NSet, NSet=Dummy0
1241
*Equation
3
Bound0A, 1, 1.0, Bound0B, 1, -1.0, Dummy0, 1, 1.0
*Equation
3
Bound0A, 2, 1.0, Bound0B, 2, -1.0, Dummy0, 2, 1.0
*Equation
3
Bound0A, 3, 1.0, Bound0B, 3, -1.0, Dummy0, 3, 1.0
*NSet, NSet=Bound1A, Unsorted
1, 2, 3, 4, 5, 6, 7, 8, 9, 10, 11, 12, 13, 14, 15, 16
17, 18, 19, 20, 21, 22, 23, 24, 25, 26, 27, 28, 29, 30, 31, 621
622, 623, 624, 625, 626, 627, 628, 629, 630, 631, 632, 633, 634, 635, 636, 637
638, 639, 640, 641, 642, 643, 644, 645, 646, 647, 648, 649, 650, 651
*NSet, NSet=Bound1B, Unsorted
590, 591, 592, 593, 594, 595, 596, 597, 598, 599, 600, 601, 602, 603, 604, 605
606, 607, 608, 609, 610, 611, 612, 613, 614, 615, 616, 617, 618, 619, 620, 1210
1211, 1212, 1213, 1214, 1215, 1216, 1217, 1218, 1219, 1220, 1221, 1222, 1223, 1224, 1225, 1226
1227, 1228, 1229, 1230, 1231, 1232, 1233, 1234, 1235, 1236, 1237, 1238, 1239, 1240
*NSet, NSet=Dummy1
1242
*Equation
3
Bound1A, 1, 1.0, Bound1B, 1, -1.0, Dummy1, 1, 1.0
*Equation
3
Bound1A, 2, 1.0, Bound1B, 2, -1.0, Dummy1, 2, 1.0
*Equation
3
Bound1A, 3, 1.0, Bound1B, 3, -1.0, Dummy1, 3, 1.0
*** Nodes containing domain AABB ***
*NSet, NSet=Domain
1243, 1244
************
*** INTERACTION PROPERTIES ***
************
*Surface Interaction, name=YARN
*Friction
0.112,
*Surface Behavior, pressure-overclosure=HARD
************
*** STEP ***
************
*Step, NLGeom=Yes
*Dynamic, Explicit
,2.5e-5
*Bulk Viscosity
0.06, 1.2
***************************
*** CONTACT DEFINITIONS ***
***************************
*** WARNING: TexGen was unable to create contact definitions automatically
***          because the textile is not of type CTextileWeave
*Output, History, Variable=PRESELECT
*Output, Field, Variable=PRESELECT
*Element Output
SDV
*Boundary
*Amplitude, name=Amp-1
0., 0., 2.5e-05, 1.
*Boundary, amplitude=Amp-1
*** Constrain the nodes closest to the geometrical center of each yarns
300, 1, 1, 0
300, 2, 2, 0
300, 3, 3, 0
*** Apply the repeat vector constraints
Dummy0, 1, 1, 0
Dummy0, 2, 2, 0
Dummy0, 3, 3, 0
Dummy1, 1, 1, 0
Dummy1, 2, 2, 0
Dummy1, 3, 3, 0
*End Step
